Circuit: * C:\Users\vscheyer\Documents\GitHub\AnalogMC\Integrator_op_amp.asc

Direct Newton iteration for .op point succeeded.

Date: Wed Dec 05 12:54:01 2018
Total elapsed time: 0.033 seconds.

tnom = 27
temp = 27
method = modified trap
totiter = 2113
traniter = 2110
tranpoints = 1054
accept = 1051
rejected = 3
matrix size = 9
fillins = 1
solver = Normal
Matrix Compiler1: 404 bytes object code size  0.1/0.1/[0.0]
Matrix Compiler2: off  [0.1]/0.1/0.8

