Circuit: * Z:\home\corey\Documents\Class\AnalogMC\PID_parallel_opamps22.asc

Direct Newton iteration for .op point succeeded.

Date: Wed Dec 12 13:04:25 2018
Total elapsed time: 0.067 seconds.

tnom = 27
temp = 27
method = modified trap
totiter = 2327
traniter = 2324
tranpoints = 1163
accept = 1141
rejected = 22
matrix size = 35
fillins = 13
solver = Normal
Matrix Compiler1: 2.40 KB object code size  1.0/0.5/[0.4]
Matrix Compiler2: 3.64 KB object code size  0.6/0.6/[0.4]

