Circuit: * Z:\home\corey\Documents\Class\AnalogMC\PID_parallel_opamps.asc

Direct Newton iteration for .op point succeeded.

Date: Tue Dec 11 14:11:21 2018
Total elapsed time: 0.233 seconds.

tnom = 27
temp = 27
method = modified trap
totiter = 10340
traniter = 10337
tranpoints = 4705
accept = 3617
rejected = 1088
matrix size = 37
fillins = 22
solver = Normal
Matrix Compiler1: 3.08 KB object code size  1.4/0.8/[0.6]
Matrix Compiler2: 4.25 KB object code size  0.9/0.9/[0.7]

