Circuit: * C:\Users\vscheyer\Documents\GitHub\AnalogMC\Differentiator_op_amp.asc

Direct Newton iteration for .op point succeeded.

Date: Wed Dec 05 14:07:19 2018
Total elapsed time: 0.048 seconds.

tnom = 27
temp = 27
method = modified trap
totiter = 2127
traniter = 2124
tranpoints = 1045
accept = 1045
rejected = 0
matrix size = 10
fillins = 2
solver = Normal
Matrix Compiler1: 490 bytes object code size  0.1/0.1/[0.1]
Matrix Compiler2: 858 bytes object code size  0.1/0.1/[0.1]

