Circuit: * C:\Users\vscheyer\Documents\GitHub\AnalogMC\PID_parallel_opamps.asc

WARNING: Node NC_02 is floating.

WARNING: Less than two connections to node NC_01.  This node is used by R2.
WARNING: Less than two connections to node NC_02.  This node is used by C1.
Direct Newton iteration failed to find .op point.  (Use ".option noopiter" to skip.)
Starting Gmin stepping
Gmin = 10
Gmin = 1.07374
Gmin = 0.115292
Gmin = 0.0123794
Gmin = 0.00132923
Gmin = 0.000142725
Gmin = 1.5325e-005
Gmin = 1.6455e-006
Gmin = 1.76685e-007
Gmin = 1.89714e-008
Gmin = 2.03704e-009
Gmin = 2.18725e-010
Gmin = 2.34854e-011
Gmin = 2.52173e-012
Gmin = 2.70769e-013
Gmin = 0
Gmin stepping succeeded in finding the operating point.


Date: Mon Dec 10 01:52:05 2018
Total elapsed time: 0.100 seconds.

tnom = 27
temp = 27
method = modified trap
totiter = 2636
traniter = 2082
tranpoints = 1042
accept = 1042
rejected = 0
matrix size = 24
fillins = 20
solver = Normal
Matrix Compiler1: 2.18 KB object code size  0.5/0.2/[0.1]
Matrix Compiler2: 2.81 KB object code size  0.3/0.3/[0.2]

