Circuit: * C:\Users\vscheyer\Documents\GitHub\AnalogMC\PID_parallel_opamps.asc

WARNING: Node NC_02 is floating.

WARNING: Less than two connections to node NC_01.  This node is used by R2.
WARNING: Less than two connections to node NC_02.  This node is used by C1.
Direct Newton iteration failed to find .op point.  (Use ".option noopiter" to skip.)
Starting Gmin stepping
Gmin = 10
Gmin = 1.07374
Gmin = 0.115292
Gmin = 0.0123794
Gmin = 0.00132923
Gmin = 0.000142725
vernier = 0.5
vernier = 0.25
vernier = 0.333333
Gmin = 9.72955e-005
vernier = 0.444444
Gmin = 3.8503e-005
vernier = 0.592592
vernier = 0.790123
Gmin = 8.80826e-006
vernier = 1
Gmin = 1.07562e-006
Gmin = 1.15494e-007
Gmin = 1.24011e-008
Gmin = 1.33156e-009
Gmin = 1.42975e-010
Gmin = 1.53518e-011
Gmin = 1.64839e-012
Gmin = 1.76994e-013
Gmin = 0
Gmin stepping succeeded in finding the operating point.


Date: Mon Dec 10 18:42:23 2018
Total elapsed time: 0.147 seconds.

tnom = 27
temp = 27
method = modified trap
totiter = 2769
traniter = 2082
tranpoints = 1042
accept = 1042
rejected = 0
matrix size = 24
fillins = 19
solver = Normal
Matrix Compiler1: 2.18 KB object code size  0.5/0.3/[0.2]
Matrix Compiler2: 2.77 KB object code size  0.4/0.4/[0.2]

