Circuit: * Z:\home\corey\Documents\Class\AnalogMC\PID_parallel_opamps.asc

WARNING: Node NC_02 is floating.

WARNING: Less than two connections to node NC_01.  This node is used by R2.
WARNING: Less than two connections to node NC_02.  This node is used by C1.
Direct Newton iteration for .op point succeeded.

Date: Mon Dec 10 18:44:32 2018
Total elapsed time: 0.146 seconds.

tnom = 27
temp = 27
method = modified trap
totiter = 7367
traniter = 7364
tranpoints = 3400
accept = 3051
rejected = 349
matrix size = 31
fillins = 23
solver = Normal
Matrix Compiler1: 2.37 KB object code size  0.9/0.6/[0.4]
Matrix Compiler2: 3.31 KB object code size  0.6/0.7/[0.5]

